/*--------------------------------*- C++ -*----------------------------------*\
| =========                 |                                                 |
| \\      /  F ield         | OpenFOAM: The Open Source CFD Toolbox           |
|  \\    /   O peration     | Version:  v1812                                 |
|   \\  /    A nd           | Web:      www.OpenFOAM.com                      |
|    \\/     M anipulation  |                                                 |
\*---------------------------------------------------------------------------*/
FoamFile
{
    version     2.0;
    format      ascii;
    class       dictionary;
    location    "constant";
    object      dynamicMeshDict;
}
// * * * * * * * * * * * * * * * * * * * * * * * * * * * * * * * * * * * * * //
#include "./initialConditions"

dynamicFvMesh   dynamicRefineFvMeshMod;

// How often to refine
refineInterval  10;

// Field to be refinement on
field           alpha.melt;

// Refine field inbetween lower..upper
lowerRefineLevel 1e-8;
upperRefineLevel 0.99999999;

// If value < unrefineLevel unrefine
unrefineLevel   10;

// Have slower than 2:1 refinement
nBufferLayers   4;

// Refine cells only up to maxRefinement levels
maxRefinement   3;

// Stop refinement if maxCells reached
maxCells        35000000;

// Flux field and corresponding velocity field. Fluxes on changed
// faces get recalculated by interpolating the velocity. Use 'none'
// on surfaceScalarFields that do not need to be reinterpolated.
correctFluxes
(
    (phi none)
    (nHatf none)
    (rhoPhi none)
    (alphaPhi none)
    (alphaPhi_ none)
    (alphaPhi0.melt none)
    (alphaPhiUn none)
    (ghf none)
    (phi0 none)
    (dVf_ none)
);

// Write the refinement level as a volScalarField
dumpLevel       false;





// ************************************************************************* //
