/*--------------------------------*- C++ -*----------------------------------*\
| =========                 |                                                 |
| \\      /  F ield         | OpenFOAM: The Open Source CFD Toolbox           |
|  \\    /   O peration     | Version:  v2206                                 |
|   \\  /    A nd           | Website:  www.openfoam.com                      |
|    \\/     M anipulation  |                                                 |
\*---------------------------------------------------------------------------*/
FoamFile
{
    version     2.0;
    format      ascii;
    class       dictionary;
    location    "system";
    object      setAlphaFieldDict;
}
// * * * * * * * * * * * * * * * * * * * * * * * * * * * * * * * * * * * * * //
#include "./caseConditions"

field       "alpha.galinstan";
type        sinPerturbedCylinder;
radius      $r0;
origin      (0 -0.5e-2 -0.5e-2);
direction   (1 0 0);
phase       0.0;
amplitude   4e-5;
wavelength  0.02;


// ************************************************************************* //
